Version 4
SHEET 1 952 680
WIRE 144 16 144 -48
WIRE 128 64 32 64
WIRE 400 64 208 64
WIRE 464 64 400 64
WIRE 592 64 544 64
WIRE 704 64 592 64
WIRE 704 112 704 64
WIRE 32 128 32 64
WIRE 400 128 400 64
WIRE 592 128 592 64
WIRE 32 288 32 208
WIRE 400 288 400 192
WIRE 400 288 32 288
WIRE 592 288 592 192
WIRE 592 288 400 288
WIRE 704 288 704 192
WIRE 704 288 592 288
FLAG 400 288 0
FLAG 704 64 Vo
FLAG 32 64 Vin
FLAG 144 -128 0
FLAG 192 16 0
SYMBOL voltage 32 112 R0
WINDOW 123 0 0 Left 0
WINDOW 39 0 0 Left 0
WINDOW 0 -67 47 Left 2
WINDOW 3 -64 73 Left 2
SYMATTR InstName V1
SYMATTR Value 20
SYMBOL ind 448 80 R270
WINDOW 0 32 56 VTop 2
WINDOW 3 5 56 VBottom 2
SYMATTR InstName L1
SYMATTR Value 100µ
SYMBOL diode 416 192 R180
WINDOW 0 24 64 Left 2
WINDOW 3 24 0 Left 2
SYMATTR InstName D1
SYMBOL cap 576 128 R0
SYMATTR InstName C1
SYMATTR Value 25µ
SYMBOL res 688 96 R0
SYMATTR InstName R1
SYMATTR Value 4.8
SYMBOL sw 224 64 R90
SYMATTR InstName S1
SYMBOL voltage 144 -32 R180
WINDOW 3 122 144 Right 2
WINDOW 123 0 0 Left 0
WINDOW 39 0 0 Left 0
WINDOW 0 -73 61 Left 2
SYMATTR Value PULSE(0 5 0 1p 1p 4u 6.66666u)
SYMATTR InstName V2
TEXT -16 312 Left 2 !.tran 0 5m 0
TEXT 240 -8 Left 2 !.model SW SW (Ron=0.1p Roff=100G Vt=0.1 Vh=0)
